12
Coordinates from ORCA-job oxa1h E -527.589010063579
  O           0.22736055464649     -1.34931567625994     -0.62752007217263
  O          -2.28099302673594     -0.65241168488927      1.06559961044037
  O          -2.68674546287294      0.32799189041376     -0.86247187392539
  O           2.86936431035292     -0.58902104846979     -0.19316803183241
  O           2.03179670192031      1.40164449559114      0.40634907616637
  C          -0.56799299295431      0.72405810413613      0.20363731398153
  C           0.52390852775097     -0.28250396315953     -0.18561957152927
  C          -1.93678517158961      0.13547112165471      0.04363706563730
  C           1.99470950128649      0.22826205317988      0.03220253650775
  H          -0.40010859366152      1.03695150215196      1.22536583402128
  H          -0.47356860148918      1.59722620150695     -0.42605749004342
  H          -3.12482574665366     -1.03541399585601      0.85009360274851
