12
Coordinates from ORCA-job oxa1h E -527.571756164978
  O       0.323449     -1.343471     -0.726822
  O      -2.237235     -0.681346      1.100046
  O      -2.775871      0.370174     -0.786765
  O       2.887792     -0.636559     -0.145944
  O       2.074052      1.389060      0.490812
  C      -0.569862      0.722653      0.158271
  C       0.513837     -0.244950     -0.204143
  C      -1.937437      0.139918      0.072487
  C       1.952233      0.195379      0.064278
  H      -0.422933      1.093735      1.178101
  H      -0.519316      1.579168     -0.522583
  H      -3.112589     -1.040822      0.854310
12
Coordinates from ORCA-job oxa1h E -527.586960622691
  O       0.270382     -1.321610     -0.700639
  O      -2.235195     -0.686965      1.072818
  O      -2.749512      0.370799     -0.780669
  O       2.862010     -0.605576     -0.139845
  O       2.032036      1.374422      0.466225
  C      -0.562841      0.721061      0.162468
  C       0.519910     -0.262932     -0.200237
  C      -1.937366      0.138359      0.064692
  C       1.963445      0.201064      0.069642
  H      -0.398667      1.083940      1.168461
  H      -0.495996      1.569054     -0.505785
  H      -3.092087     -1.038677      0.854918
12
Coordinates from ORCA-job oxa1h E -527.588012007691
  O       0.235057     -1.319189     -0.694707
  O      -2.224986     -0.692415      1.062515
  O      -2.744816      0.368743     -0.788957
  O       2.854126     -0.616837     -0.111037
  O       2.023471      1.368689      0.479549
  C      -0.565753      0.730804      0.161396
  C       0.522619     -0.267678     -0.216040
  C      -1.940591      0.140413      0.058071
  C       1.983241      0.216123      0.042953
  H      -0.386567      1.088150      1.165645
  H      -0.496813      1.582042     -0.500547
  H      -3.082868     -1.055905      0.873207
12
Coordinates from ORCA-job oxa1h E -527.577833855058
  O       0.176417     -1.328824     -0.627926
  O      -2.248181     -0.699210      1.022657
  O      -2.704068      0.379552     -0.842675
  O       2.852277     -0.594032     -0.197345
  O       2.023990      1.408832      0.336126
  C      -0.572573      0.738551      0.203644
  C       0.533461     -0.301830     -0.169986
  C      -1.946179      0.143099      0.033433
  C       2.026582      0.204899      0.139279
  H      -0.396215      1.078995      1.212767
  H      -0.467600      1.598501     -0.440086
  H      -3.101791     -1.085594      0.862159
12
Coordinates from ORCA-job oxa1h E -527.588838802562
  O       0.221979     -1.334060     -0.666575
  O      -2.244811     -0.689660      1.051453
  O      -2.729120      0.368485     -0.816901
  O       2.871583     -0.605554     -0.150766
  O       2.035718      1.394127      0.422743
  C      -0.570724      0.729709      0.182652
  C       0.523831     -0.281915     -0.193964
  C      -1.943657      0.140312      0.049558
  C       1.997205      0.214340      0.066619
  H      -0.396915      1.075741      1.192231
  H      -0.486802      1.587561     -0.469798
  H      -3.102167     -1.056148      0.864796
12
Coordinates from ORCA-job oxa1h E -527.588964007672
  O       0.228501     -1.333327     -0.670993
  O      -2.247652     -0.679112      1.059495
  O      -2.723519      0.358924     -0.821637
  O       2.865765     -0.605959     -0.148744
  O       2.029209      1.390160      0.432602
  C      -0.568993      0.728623      0.181890
  C       0.523946     -0.278817     -0.199772
  C      -1.940060      0.137729      0.049136
  C       1.992646      0.217520      0.056734
  H      -0.394953      1.069261      1.193707
  H      -0.486584      1.588984     -0.467764
  H      -3.102187     -1.051047      0.867394
12
Coordinates from ORCA-job oxa1h E -527.588960092745
  O       0.224221     -1.334262     -0.661444
  O      -2.253653     -0.672954      1.061446
  O      -2.711862      0.346307     -0.834131
  O       2.862934     -0.606046     -0.159227
  O       2.031510      1.391508      0.425592
  C      -0.569043      0.730726      0.188675
  C       0.521303     -0.279102     -0.192553
  C      -1.940682      0.142805      0.051883
  C       1.991527      0.218881      0.049570
  H      -0.396019      1.067063      1.201899
  H      -0.482652      1.592291     -0.458645
  H      -3.101463     -1.054278      0.858983
12
Coordinates from ORCA-job oxa1h E -527.588990759371
  O       0.226550     -1.336114     -0.659280
  O      -2.259485     -0.667836      1.063653
  O      -2.709417      0.344040     -0.837807
  O       2.865314     -0.603353     -0.161983
  O       2.032802      1.393971      0.423157
  C      -0.569215      0.728456      0.190236
  C       0.522699     -0.278935     -0.194381
  C      -1.939300      0.138137      0.048460
  C       1.993154      0.221067      0.047252
  H      -0.397221      1.059360      1.205311
  H      -0.482585      1.592740     -0.453153
  H      -3.107177     -1.048595      0.860582
12
Coordinates from ORCA-job oxa1h E -527.589000143146
  O       0.226242     -1.339361     -0.651270
  O      -2.265546     -0.662621      1.065021
  O      -2.702833      0.338326     -0.845353
  O       2.866052     -0.600662     -0.167714
  O       2.033247      1.396456      0.417158
  C      -0.569107      0.727704      0.193899
  C       0.522799     -0.278603     -0.194850
  C      -1.938391      0.136898      0.046744
  C       1.993633      0.223063      0.043107
  H      -0.397385      1.051606      1.211437
  H      -0.480933      1.595468     -0.444491
  H      -3.111659     -1.045334      0.858362
12
Coordinates from ORCA-job oxa1h E -527.589001211066
  O       0.228092     -1.349123     -0.628822
  O      -2.285422     -0.648673      1.066961
  O      -2.683392      0.325822     -0.865952
  O       2.870449     -0.587440     -0.194689
  O       2.032192      1.404215      0.400235
  C      -0.567987      0.722641      0.206608
  C       0.524422     -0.283926     -0.182883
  C      -1.935814      0.133104      0.042021
  C       1.995508      0.229442      0.030974
  H      -0.401531      1.033103      1.229410
  H      -0.471895      1.596693     -0.421807
  H      -3.128503     -1.032917      0.849992
12
Coordinates from ORCA-job oxa1h E -527.589009186215
  O       0.227025     -1.347954     -0.630526
  O      -2.280469     -0.652367      1.066054
  O      -2.687164      0.327864     -0.861971
  O       2.868928     -0.590558     -0.189610
  O       2.032175      1.402016      0.404762
  C      -0.568155      0.724384      0.203598
  C       0.523686     -0.282002     -0.186621
  C      -1.936721      0.135261      0.043703
  C       1.994644      0.227973      0.032834
  H      -0.399883      1.037071      1.225308
  H      -0.474023      1.597514     -0.426226
  H      -3.123922     -1.036262      0.850744
12
Coordinates from ORCA-job oxa1h E -527.589010063579
  O       0.227361     -1.349316     -0.627520
  O      -2.280993     -0.652412      1.065600
  O      -2.686745      0.327992     -0.862472
  O       2.869364     -0.589021     -0.193168
  O       2.031797      1.401644      0.406349
  C      -0.567993      0.724058      0.203637
  C       0.523909     -0.282504     -0.185620
  C      -1.936785      0.135471      0.043637
  C       1.994710      0.228262      0.032203
  H      -0.400109      1.036952      1.225366
  H      -0.473569      1.597226     -0.426057
  H      -3.124826     -1.035414      0.850094
