13
Coordinates from ORCA-job oxa2h E -528.124234962608
  O       0.650507     -1.335402     -0.729858
  O      -2.129860     -0.899657      0.822871
  O      -2.546205      0.177960     -1.088305
  O       3.005118     -0.579016     -0.076992
  O       2.186649      1.379788      0.763791
  C      -0.495321      0.649251      0.102092
  C       0.671669     -0.238220     -0.179336
  C      -1.802805     -0.019757     -0.142274
  C       2.034036      0.299230      0.232560
  H      -0.470758      0.987242      1.143423
  H      -0.432211      1.532529     -0.542089
  H       2.603114     -1.372003     -0.506142
  H      -2.986895     -1.277746      0.529309
13
Coordinates from ORCA-job oxa2h E -528.136339344629
  O       0.614294     -1.311526     -0.705554
  O      -2.136073     -0.898870      0.799665
  O      -2.538045      0.187365     -1.075129
  O       3.011228     -0.562902     -0.070997
  O       2.198494      1.331091      0.738913
  C      -0.505054      0.649681      0.101324
  C       0.664155     -0.242991     -0.177362
  C      -1.819827     -0.026475     -0.153191
  C       2.045962      0.279629      0.223668
  H      -0.465473      0.984692      1.131093
  H      -0.430910      1.523604     -0.535206
  H       2.616767     -1.327599     -0.484871
  H      -2.968480     -1.281500      0.536696
13
Coordinates from ORCA-job oxa2h E -528.137052492210
  O       0.583330     -1.315504     -0.685663
  O      -2.127214     -0.904949      0.784971
  O      -2.534257      0.201504     -1.081898
  O       3.013529     -0.561824     -0.072260
  O       2.197444      1.328329      0.729301
  C      -0.510894      0.661619      0.105370
  C       0.654672     -0.245355     -0.173518
  C      -1.831520     -0.014681     -0.154571
  C       2.046481      0.275731      0.218876
  H      -0.460969      0.998187      1.133777
  H      -0.428272      1.533926     -0.531257
  H       2.637211     -1.338927     -0.482132
  H      -2.952502     -1.313855      0.538052
13
Coordinates from ORCA-job oxa2h E -528.136926385483
  O       0.576894     -1.328619     -0.678404
  O      -2.138613     -0.898786      0.776110
  O      -2.542186      0.234448     -1.082735
  O       3.026642     -0.545203     -0.077987
  O       2.185465      1.332049      0.724215
  C      -0.513715      0.654325      0.106837
  C       0.655029     -0.259366     -0.168284
  C      -1.830700     -0.030546     -0.176877
  C       2.047766      0.276169      0.215028
  H      -0.464298      0.986245      1.136977
  H      -0.422172      1.529188     -0.524935
  H       2.680508     -1.338409     -0.483002
  H      -2.973581     -1.307295      0.562107
13
Coordinates from ORCA-job oxa2h E -528.137257047495
  O       0.567556     -1.327319     -0.672601
  O      -2.128393     -0.902786      0.775259
  O      -2.532744      0.220723     -1.089985
  O       3.016848     -0.554403     -0.078691
  O       2.188041      1.331906      0.719337
  C      -0.513421      0.664518      0.110459
  C       0.649739     -0.253462     -0.168192
  C      -1.834324     -0.013535     -0.163068
  C       2.042864      0.274280      0.214206
  H      -0.459567      0.998110      1.139837
  H      -0.422823      1.538157     -0.523431
  H       2.664332     -1.345149     -0.480513
  H      -2.951071     -1.326841      0.546432
13
Coordinates from ORCA-job oxa2h E -528.137260895360
  O       0.570649     -1.326289     -0.674768
  O      -2.130611     -0.900402      0.777522
  O      -2.531258      0.217143     -1.090277
  O       3.016597     -0.554349     -0.077087
  O       2.187461      1.330866      0.721308
  C      -0.512889      0.663264      0.110215
  C       0.650693     -0.252397     -0.170551
  C      -1.832869     -0.014828     -0.162767
  C       2.042546      0.275913      0.211187
  H      -0.459241      0.994962      1.140144
  H      -0.423895      1.537870     -0.522462
  H       2.663620     -1.344647     -0.480445
  H      -2.953766     -1.322907      0.547030
13
Coordinates from ORCA-job oxa2h E -528.137262179037
  O       0.572515     -1.328357     -0.670756
  O      -2.135670     -0.896993      0.778689
  O      -2.527085      0.214171     -1.093695
  O       3.017539     -0.551073     -0.081742
  O       2.187502      1.332509      0.717898
  C      -0.512462      0.661275      0.112076
  C       0.651247     -0.253721     -0.168245
  C      -1.831626     -0.016009     -0.163509
  C       2.042057      0.275161      0.213218
  H      -0.460430      0.991129      1.142624
  H      -0.422676      1.536689     -0.519293
  H       2.664962     -1.342317     -0.484052
  H      -2.958835     -1.318266      0.545835
13
Coordinates from ORCA-job oxa2h E -528.137266209094
  O       0.570459     -1.329676     -0.668151
  O      -2.137172     -0.896823      0.777674
  O      -2.524806      0.214675     -1.096303
  O       3.017982     -0.550304     -0.083812
  O       2.188012      1.334236      0.714150
  C      -0.512789      0.661305      0.114202
  C       0.650535     -0.255064     -0.165457
  C      -1.832259     -0.015325     -0.163798
  C       2.042471      0.276157      0.210506
  H      -0.460982      0.990344      1.145061
  H      -0.421400      1.537173     -0.516344
  H       2.666351     -1.343043     -0.483065
  H      -2.959362     -1.319454      0.544386
13
Coordinates from ORCA-job oxa2h E -528.137266666160
  O       0.568883     -1.330286     -0.667047
  O      -2.137055     -0.896613      0.777606
  O      -2.523977      0.214338     -1.097505
  O       3.017788     -0.551296     -0.082137
  O       2.188050      1.334640      0.713109
  C      -0.513033      0.661982      0.114441
  C       0.650368     -0.253609     -0.168764
  C      -1.832401     -0.015201     -0.164083
  C       2.042584      0.276967      0.208259
  H      -0.459767      0.988510      1.146091
  H      -0.422642      1.539301     -0.514200
  H       2.666916     -1.344124     -0.481396
  H      -2.958676     -1.320410      0.544677
13
Coordinates from ORCA-job oxa2h E -528.137269393807
  O       0.569700     -1.331680     -0.663719
  O      -2.141086     -0.894503      0.778169
  O      -2.520027      0.211948     -1.100766
  O       3.018447     -0.549329     -0.085556
  O       2.188609      1.336514      0.709304
  C      -0.512824      0.660611      0.116718
  C       0.650613     -0.254827     -0.165893
  C      -1.831799     -0.015785     -0.164456
  C       2.042890      0.277804      0.206929
  H      -0.460919      0.985478      1.148943
  H      -0.421377      1.538790     -0.510527
  H       2.667215     -1.343208     -0.482808
  H      -2.962405     -1.317616      0.542711
13
Coordinates from ORCA-job oxa2h E -528.137271578277
  O       0.569927     -1.334671     -0.656683
  O      -2.148123     -0.890887      0.778744
  O      -2.512366      0.207868     -1.107362
  O       3.019464     -0.546515     -0.090850
  O       2.189769      1.340621      0.700798
  C      -0.512632      0.658629      0.121215
  C       0.650899     -0.256228     -0.162427
  C      -1.830879     -0.016691     -0.165387
  C       2.043652      0.279828      0.203096
  H      -0.462352      0.978870      1.154983
  H      -0.419718      1.539336     -0.502167
  H       2.667854     -1.342410     -0.483875
  H      -2.968458     -1.313550      0.538965
13
Coordinates from ORCA-job oxa2h E -528.137272855345
  O       0.569713     -1.338205     -0.648264
  O      -2.155711     -0.886991      0.779130
  O      -2.503654      0.203425     -1.114888
  O       3.020457     -0.543826     -0.096300
  O       2.191096      1.345452      0.690751
  C      -0.512488      0.656684      0.126315
  C       0.651188     -0.257400     -0.159303
  C      -1.829912     -0.017640     -0.166549
  C       2.044646      0.282307      0.198243
  H      -0.463707      0.971142      1.161975
  H      -0.418158      1.540603     -0.492174
  H       2.668331     -1.341839     -0.484575
  H      -2.974763     -1.309511      0.534686
13
Coordinates from ORCA-job oxa2h E -528.137273067270
  O       0.569491     -1.339054     -0.646126
  O      -2.157317     -0.886228      0.779072
  O      -2.501601      0.202499     -1.116698
  O       3.020608     -0.543479     -0.097281
  O       2.191491      1.346804      0.687943
  C      -0.512479      0.656347      0.127554
  C       0.651263     -0.257459     -0.158933
  C      -1.829704     -0.017850     -0.166888
  C       2.044997      0.283023      0.196795
  H      -0.463938      0.969099      1.163765
  H      -0.417935      1.541264     -0.489439
  H       2.668171     -1.341925     -0.484325
  H      -2.976008     -1.308844      0.533610
