164550
  -OEChem-09102514213D

 11 10  0     0  0  0  0  0  0999 V2000
    0.3017   -1.4065   -0.3339 O   0  0  0  0  0  0  0  0  0  0  0  0
   -2.2319   -0.8108    0.8523 O   0  5  0  0  0  0  0  0  0  0  0  0
   -2.7335    0.6669   -0.8210 O   0  0  0  0  0  0  0  0  0  0  0  0
    2.7556   -0.7314   -0.2250 O   0  5  0  0  0  0  0  0  0  0  0  0
    2.1335    1.3980    0.2990 O   0  0  0  0  0  0  0  0  0  0  0  0
   -0.6166    0.7794    0.2080 C   0  0  0  0  0  0  0  0  0  0  0  0
    0.4721   -0.2277   -0.0555 C   0  0  0  0  0  0  0  0  0  0  0  0
   -1.9966    0.1478    0.0640 C   0  0  0  0  0  0  0  0  0  0  0  0
    1.9159    0.1845    0.0121 C   0  0  0  0  0  0  0  0  0  0  0  0
   -0.5085    1.1627    1.2280 H   0  0  0  0  0  0  0  0  0  0  0  0
   -0.5038    1.6100   -0.4967 H   0  0  0  0  0  0  0  0  0  0  0  0
  1  7  2  0  0  0  0
  2  8  1  0  0  0  0
  3  8  2  0  0  0  0
  4  9  1  0  0  0  0
  5  9  2  0  0  0  0
  6  7  1  0  0  0  0
  6  8  1  0  0  0  0
  6 10  1  0  0  0  0
  6 11  1  0  0  0  0
  7  9  1  0  0  0  0
M  CHG  2   2  -1   4  -1
M  END
> <PUBCHEM_COMPOUND_CID>
164550

> <PUBCHEM_CONFORMER_RMSD>
0.6

> <PUBCHEM_CONFORMER_DIVERSEORDER>
1
2
4
3

> <PUBCHEM_MMFF94_PARTIAL_CHARGES>
9
1 -0.57
2 -0.9
3 -0.9
4 -0.9
5 -0.9
6 -0.04
7 0.36
8 0.91
9 0.95

> <PUBCHEM_EFFECTIVE_ROTOR_COUNT>
3

> <PUBCHEM_PHARMACOPHORE_FEATURES>
8
1 1 acceptor
1 2 acceptor
1 3 acceptor
1 4 acceptor
1 5 acceptor
1 6 anion
3 2 3 8 anion
3 4 5 9 anion

> <PUBCHEM_HEAVY_ATOM_COUNT>
9

> <PUBCHEM_ATOM_DEF_STEREO_COUNT>
0

> <PUBCHEM_ATOM_UDEF_STEREO_COUNT>
0

> <PUBCHEM_BOND_DEF_STEREO_COUNT>
0

> <PUBCHEM_BOND_UDEF_STEREO_COUNT>
0

> <PUBCHEM_ISOTOPIC_ATOM_COUNT>
0

> <PUBCHEM_COMPONENT_COUNT>
1

> <PUBCHEM_CACTVS_TAUTO_COUNT>
3

> <PUBCHEM_CONFORMER_ID>
000282C600000001

> <PUBCHEM_MMFF94_ENERGY>
8.6833

> <PUBCHEM_FEATURE_SELFOVERLAP>
41.022

> <PUBCHEM_SHAPE_FINGERPRINT>
10857977 72 18115025337088851201
12897270 3 18411417284947994149
12932741 1 18333452044856235541
12932764 1 17603303739181798257
14325111 11 18411699906607100196
14390081 3 18335414660480420237
19973954 147 18334298677436987653
21040471 1 18341331218532958436
29004967 10 18413114947986080569
3248919 1 16630530639096088743
5084963 1 18113910367820983656

> <PUBCHEM_SHAPE_MULTIPOLES>
155.87
3.98
1.18
0.72
0.15
0.02
0.01
-0.24
-0.2
-0.31
0.02
0.31
0.01
0.4

> <PUBCHEM_SHAPE_SELFOVERLAP>
306.592

> <PUBCHEM_SHAPE_VOLUME>
92

> <PUBCHEM_COORDINATE_TYPE>
2
5
10

$$$$
