13
Coordinates from ORCA-job malate E -528.062606494689
  O          -0.92063457509662     -1.15377096932182      1.45511311954129
  O          -1.76323403728241      1.09937444931932     -1.14333639099257
  O          -2.84193565667174     -0.55063114984705     -0.10743022290340
  O           2.75832714055774     -1.52623104381275     -0.06945940771647
  O           2.23677093336099      0.25100638983010      1.16395599453015
  C          -0.58446923080197     -0.15818866185277      0.50810933386914
  C           0.60127444696869     -0.59055215467049     -0.35283886470536
  C          -1.84680232235333      0.16808764726249     -0.34018047238839
  C           1.99309904588923     -0.63575124452436      0.33481888400021
  H          -0.29733269618793      0.74458854841293      1.03673414664495
  H           0.39231233099211     -1.56443740386246     -0.78940532799340
  H           0.68289131651718      0.11966839726146     -1.17381967280250
  H          -1.81836769589195     -1.36616280419461      1.20143988091633
