13
Coordinates from ORCA-job malate E -528.044618716207
  O      -1.355313     -1.564288      1.079218
  O      -1.160833      1.229804     -1.160932
  O      -2.821820      0.241105      0.062338
  O       2.869836     -0.511343     -0.767812
  O       2.048861      0.538744      1.075467
  C      -0.597086     -0.414365      0.564106
  C       0.626699     -0.937727     -0.172258
  C      -1.602628      0.459630     -0.269199
  C       1.950856     -0.204146      0.057184
  H      -0.329599      0.173430      1.447862
  H       0.811912     -1.981097      0.115833
  H       0.431516     -0.949754     -1.251833
  H      -2.280502     -1.242993      0.943727
13
Coordinates from ORCA-job malate E -528.051166762747
  O      -1.364941     -1.554937      1.065530
  O      -1.169102      1.215786     -1.101560
  O      -2.805856      0.299158      0.096489
  O       2.862546     -0.491855     -0.750073
  O       2.051370      0.557830      1.037525
  C      -0.614983     -0.434976      0.552867
  C       0.626075     -0.942176     -0.171291
  C      -1.614804      0.408050     -0.290621
  C       1.966105     -0.214896      0.071273
  H      -0.338061      0.165438      1.410289
  H       0.799758     -1.972554      0.131195
  H       0.447491     -0.964518     -1.241254
  H      -2.253697     -1.233349      0.913333
13
Coordinates from ORCA-job malate E -528.051165361037
  O      -1.365658     -1.536949      1.073840
  O      -1.178029      1.174660     -1.101419
  O      -2.815299      0.221971     -0.001574
  O       2.855727     -0.502805     -0.738898
  O       2.096548      0.496382      1.060941
  C      -0.628926     -0.427445      0.568419
  C       0.612166     -0.912032     -0.180094
  C      -1.619334      0.435897     -0.251816
  C       1.974928     -0.200277      0.062721
  H      -0.307346      0.170770      1.404390
  H       0.777153     -1.943444      0.109591
  H       0.432492     -0.923573     -1.243216
  H      -2.242523     -1.216155      0.960817
13
Coordinates from ORCA-job malate E -528.054421283272
  O      -1.348954     -1.533897      1.100288
  O      -1.190260      1.215139     -1.107591
  O      -2.830820      0.215586      0.013381
  O       2.868334     -0.507371     -0.739148
  O       2.085137      0.485270      1.089302
  C      -0.624149     -0.422815      0.556623
  C       0.615751     -0.916609     -0.188924
  C      -1.629151      0.423802     -0.279079
  C       1.977475     -0.213787      0.075077
  H      -0.297044      0.201740      1.382117
  H       0.774124     -1.955574      0.099853
  H       0.444665     -0.918830     -1.259952
  H      -2.253209     -1.235654      0.981754
13
Coordinates from ORCA-job malate E -528.054333023853
  O      -1.332195     -1.510731      1.130627
  O      -1.205206      1.216293     -1.108883
  O      -2.839474      0.178987     -0.007092
  O       2.865781     -0.498499     -0.741209
  O       2.084840      0.463263      1.108715
  C      -0.622288     -0.411932      0.556341
  C       0.612353     -0.915013     -0.194885
  C      -1.638691      0.418183     -0.281968
  C       1.986827     -0.249065      0.101406
  H      -0.279704      0.231322      1.362115
  H       0.746426     -1.962954      0.074363
  H       0.452510     -0.886733     -1.267667
  H      -2.239280     -1.236120      0.991835
13
Coordinates from ORCA-job malate E -528.055280039654
  O      -1.289201     -1.461954      1.181400
  O      -1.267714      1.216640     -1.115432
  O      -2.865383      0.123925     -0.010048
  O       2.882707     -0.530050     -0.709721
  O       2.107066      0.366570      1.177217
  C      -0.623238     -0.384576      0.543630
  C       0.608195     -0.892677     -0.216170
  C      -1.674635      0.389192     -0.302906
  C       1.994718     -0.266401      0.118954
  H      -0.262722      0.303092      1.304621
  H       0.717271     -1.948675      0.032999
  H       0.466327     -0.832257     -1.289893
  H      -2.201491     -1.245829      1.009050
13
Coordinates from ORCA-job malate E -528.055803085232
  O      -1.271305     -1.434899      1.219327
  O      -1.298697      1.222929     -1.111901
  O      -2.871723      0.059066     -0.048155
  O       2.892805     -0.553057     -0.694574
  O       2.124586      0.316780      1.204433
  C      -0.622253     -0.367513      0.543368
  C       0.606026     -0.876383     -0.226211
  C      -1.688057      0.375144     -0.312073
  C       2.003632     -0.286026      0.130712
  H      -0.257076      0.342620      1.279614
  H       0.693256     -1.940528     -0.008354
  H       0.472697     -0.781182     -1.297720
  H      -2.191993     -1.239952      1.045234
13
Coordinates from ORCA-job malate E -528.056491749784
  O      -1.237333     -1.390073      1.275716
  O      -1.347861      1.210752     -1.125021
  O      -2.878888     -0.023374     -0.083064
  O       2.905412     -0.596298     -0.668341
  O       2.144899      0.248954      1.241737
  C      -0.617842     -0.336934      0.546481
  C       0.601845     -0.850422     -0.238255
  C      -1.709023      0.354890     -0.319857
  C       2.014749     -0.323019      0.153125
  H      -0.252888      0.403720      1.249905
  H       0.650309     -1.926468     -0.078100
  H       0.482466     -0.692710     -1.303380
  H      -2.163947     -1.242017      1.072753
13
Coordinates from ORCA-job malate E -528.057191366134
  O      -1.201077     -1.344668      1.324143
  O      -1.398707      1.200878     -1.133901
  O      -2.880765     -0.104499     -0.110511
  O       2.916036     -0.649250     -0.637055
  O       2.155251      0.191563      1.273733
  C      -0.612237     -0.307308      0.546175
  C       0.598304     -0.825683     -0.250710
  C      -1.728493      0.331427     -0.329105
  C       2.022151     -0.362692      0.176728
  H      -0.252071      0.461324      1.220007
  H       0.606654     -1.909676     -0.151078
  H       0.496158     -0.603285     -1.305771
  H      -2.129306     -1.241131      1.101045
13
Coordinates from ORCA-job malate E -528.058280120781
  O      -1.144074     -1.277861      1.386284
  O      -1.472755      1.176333     -1.152823
  O      -2.876864     -0.215034     -0.135544
  O       2.924371     -0.744265     -0.585865
  O       2.162330      0.120554      1.313487
  C      -0.602354     -0.262717      0.544160
  C       0.593223     -0.787902     -0.267178
  C      -1.754109      0.294818     -0.341606
  C       2.026876     -0.424665      0.212718
  H      -0.257556      0.543190      1.179813
  H       0.539754     -1.874964     -0.266300
  H       0.521455     -0.464502     -1.298491
  H      -2.068396     -1.245986      1.135046
13
Coordinates from ORCA-job malate E -528.059615243868
  O      -1.063309     -1.166476      1.466762
  O      -1.597553      1.146869     -1.163238
  O      -2.852146     -0.395844     -0.170239
  O       2.923818     -0.897584     -0.511623
  O       2.166706      0.002892      1.371412
  C      -0.592547     -0.195297      0.534638
  C       0.589054     -0.725900     -0.293145
  C      -1.792490      0.237758     -0.355301
  C       2.025624     -0.519612      0.261219
  H      -0.269396      0.665490      1.103967
  H       0.450201     -1.795823     -0.431003
  H       0.580680     -0.270658     -1.275881
  H      -1.976743     -1.248815      1.186133
13
Coordinates from ORCA-job malate E -528.059996360159
  O      -0.984822     -1.123371      1.488206
  O      -1.659410      1.105183     -1.186819
  O      -2.837358     -0.477406     -0.159090
  O       2.875017     -1.128368     -0.403679
  O       2.171258      0.058003      1.344979
  C      -0.577362     -0.154449      0.526921
  C       0.580668     -0.678698     -0.299344
  C      -1.804942      0.193564     -0.369301
  C       2.003816     -0.591904      0.308532
  H      -0.296600      0.732208      1.083983
  H       0.372766     -1.707713     -0.590115
  H       0.613854     -0.091137     -1.213953
  H      -1.864986     -1.298912      1.193382
13
Coordinates from ORCA-job malate E -528.061064495541
  O      -0.970113     -1.066871      1.521671
  O      -1.726785      1.114756     -1.158370
  O      -2.801391     -0.578400     -0.195875
  O       2.863023     -1.203191     -0.375515
  O       2.180814      0.003236      1.362067
  C      -0.583423     -0.125937      0.526104
  C       0.583410     -0.644444     -0.310962
  C      -1.822838      0.176986     -0.363415
  C       2.003394     -0.623685      0.313846
  H      -0.299088      0.784511      1.037803
  H       0.356643     -1.658699     -0.632600
  H       0.650128     -0.037992     -1.210256
  H      -1.841874     -1.303271      1.209204
13
Coordinates from ORCA-job malate E -528.061679497173
  O      -0.988589     -1.109346      1.498863
  O      -1.711869      1.159170     -1.116601
  O      -2.806670     -0.552928     -0.209007
  O       2.858279     -1.261573     -0.322294
  O       2.198579      0.119832      1.289842
  C      -0.589454     -0.147168      0.532748
  C       0.585427     -0.649686     -0.308334
  C      -1.820041      0.198278     -0.352129
  C       2.012164     -0.597205      0.301951
  H      -0.288959      0.751285      1.057040
  H       0.379371     -1.674603     -0.607944
  H       0.629688     -0.067049     -1.226010
  H      -1.866026     -1.332007      1.185576
13
Coordinates from ORCA-job malate E -528.062248511623
  O      -0.955245     -1.104023      1.495985
  O      -1.762717      1.162130     -1.093564
  O      -2.794901     -0.603808     -0.212365
  O       2.790703     -1.442624     -0.186729
  O       2.239622      0.202729      1.205616
  C      -0.590018     -0.134958      0.528294
  C       0.587473     -0.614483     -0.318796
  C      -1.834249      0.182856     -0.347925
  C       2.001866     -0.627051      0.321140
  H      -0.297605      0.772497      1.041790
  H       0.366347     -1.610270     -0.695362
  H       0.658056      0.029349     -1.195415
  H      -1.817433     -1.375343      1.181032
13
Coordinates from ORCA-job malate E -528.062468291672
  O      -0.935833     -1.123107      1.480008
  O      -1.771188      1.151310     -1.098281
  O      -2.810828     -0.591395     -0.180349
  O       2.759438     -1.512961     -0.099829
  O       2.246624      0.251890      1.155963
  C      -0.587857     -0.141220      0.520387
  C       0.590814     -0.602826     -0.334212
  C      -1.841129      0.179692     -0.342741
  C       1.994081     -0.632953      0.328436
  H      -0.294685      0.762482      1.041420
  H       0.374802     -1.586665     -0.743812
  H       0.670057      0.075448     -1.184021
  H      -1.802398     -1.392695      1.180733
13
Coordinates from ORCA-job malate E -528.062557564634
  O      -0.922772     -1.133632      1.469769
  O      -1.773897      1.133463     -1.110961
  O      -2.823213     -0.579579     -0.149464
  O       2.749397     -1.535877     -0.062809
  O       2.239248      0.260354      1.148452
  C      -0.585226     -0.147217      0.512671
  C       0.594359     -0.595574     -0.348472
  C      -1.845250      0.174219     -0.339915
  C       1.989063     -0.637347      0.332693
  H      -0.290823      0.755066      1.036259
  H       0.381813     -1.573294     -0.774693
  H       0.678895      0.104509     -1.178803
  H      -1.799695     -1.388090      1.188974
13
Coordinates from ORCA-job malate E -528.062587065195
  O      -0.919196     -1.143291      1.462742
  O      -1.769857      1.117058     -1.125381
  O      -2.832048     -0.567106     -0.128164
  O       2.748983     -1.538998     -0.054460
  O       2.237223      0.260553      1.150202
  C      -0.584119     -0.152109      0.509732
  C       0.597281     -0.591605     -0.354234
  C      -1.846455      0.170948     -0.338762
  C       1.988934     -0.637652      0.334259
  H      -0.291204      0.749012      1.036446
  H       0.386415     -1.566868     -0.786874
  H       0.681433      0.117467     -1.176009
  H      -1.805491     -1.380411      1.194204
13
Coordinates from ORCA-job malate E -528.062600510015
  O      -0.918906     -1.150292      1.457672
  O      -1.766407      1.105838     -1.135837
  O      -2.837621     -0.558412     -0.115138
  O       2.752673     -1.534911     -0.058357
  O       2.236784      0.256698      1.156114
  C      -0.583869     -0.155935      0.508362
  C       0.599814     -0.589909     -0.355501
  C      -1.846738      0.168513     -0.339127
  C       1.990730     -0.637018      0.334850
  H      -0.293576      0.745316      1.036988
  H       0.389789     -1.564108     -0.790737
  H       0.682166      0.122134     -1.174482
  H      -1.812940     -1.370914      1.198893
13
Coordinates from ORCA-job malate E -528.062605111418
  O      -0.920159     -1.153465      1.455593
  O      -1.763784      1.100442     -1.141735
  O      -2.840506     -0.552857     -0.109100
  O       2.756275     -1.529578     -0.065110
  O       2.237090      0.253339      1.160831
  C      -0.584134     -0.157651      0.508303
  C       0.600997     -0.589956     -0.354158
  C      -1.846599      0.168019     -0.339681
  C       1.992405     -0.636090      0.334800
  H      -0.295955      0.744272      1.037496
  H       0.391410     -1.563944     -0.790035
  H       0.682131      0.121481     -1.173896
  H      -1.817271     -1.367011      1.200393
13
Coordinates from ORCA-job malate E -528.062606300622
  O      -0.920555     -1.153724      1.455227
  O      -1.763495      1.099632     -1.142902
  O      -2.841405     -0.551573     -0.108097
  O       2.757829     -1.527120     -0.068637
  O       2.237146      0.251426      1.163214
  C      -0.584388     -0.158053      0.508230
  C       0.601299     -0.590327     -0.353063
  C      -1.846706      0.167925     -0.340157
  C       1.993052     -0.635888      0.334815
  H      -0.297125      0.744573      1.036984
  H       0.391983     -1.564201     -0.789412
  H       0.682569      0.120227     -1.173731
  H      -1.818304     -1.365897      1.201230
13
Coordinates from ORCA-job malate E -528.062606494689
  O      -0.920635     -1.153771      1.455113
  O      -1.763234      1.099374     -1.143336
  O      -2.841936     -0.550631     -0.107430
  O       2.758327     -1.526231     -0.069459
  O       2.236771      0.251006      1.163956
  C      -0.584469     -0.158189      0.508109
  C       0.601274     -0.590552     -0.352839
  C      -1.846802      0.168088     -0.340180
  C       1.993099     -0.635751      0.334819
  H      -0.297333      0.744589      1.036734
  H       0.392312     -1.564437     -0.789405
  H       0.682891      0.119668     -1.173820
  H      -1.818368     -1.366163      1.201440
